data_image0
_chemical_formula_structural       C212NC2
_chemical_formula_sum              "C214 N1"
_cell_length_a       10.639295332284284
_cell_length_b       10.639295332284284
_cell_length_c       10.639295332284284
_cell_angle_alpha    90.0
_cell_angle_beta     90.0
_cell_angle_gamma    90.0

_space_group_name_H-M_alt    "P 1"
_space_group_IT_number       1

loop_
  _space_group_symop_operation_xyz
  'x, y, z'

loop_
  _atom_site_type_symbol
  _atom_site_label
  _atom_site_symmetry_multiplicity
  _atom_site_fract_x
  _atom_site_fract_y
  _atom_site_fract_z
  _atom_site_occupancy
  C   C1        1.0  0.00022292394832877681  0.0002229239483293664  0.0002229239483297954  1.0000
  C   C2        1.0  0.9999833922498074  0.16676785361499427  0.16676785361499483  1.0000
  C   C3        1.0  0.16676785361499005  0.1667678536149892  0.9999833922497995  1.0000
  C   C4        1.0  0.16676785361499538  0.9999833922498086  0.1667678536149931  1.0000
  C   C5        1.0  0.2500438745135886  0.0832777324309321  0.2500438745135815  1.0000
  C   C6        1.0  0.08345779635482649  0.08345779635482654  0.08345779635482524  1.0000
  C   C7        1.0  0.08327773243093291  0.2500438745135811  0.2500438745135814  1.0000
  C   C8        1.0  0.2500438745135806  0.25004387451358107  0.0832777324309266  1.0000
  C   C9        1.0  0.9998383404039456  0.999838340403948  0.33368944944066975  1.0000
  C   C10       1.0  0.9998576609806596  0.16655370724594268  0.5000703079444253  1.0000
  C   C11       1.0  0.16661247350743283  0.16661247350743122  0.3333809601359284  1.0000
  C   C12       1.0  0.16655370724594123  0.999857660980662  0.500070307944433  1.0000
  C   C13       1.0  0.24987931294166352  0.0833180211348555  0.5833991867728984  1.0000
  C   C14       1.0  0.08322469047994555  0.08322469047994326  0.41680580193528727  1.0000
  C   C15       1.0  0.08331802113485187  0.2498793129416593  0.5833991867728981  1.0000
  C   C16       1.0  0.2499539707961167  0.24995397079611623  0.4166636482461634  1.0000
  C   C17       1.0  0.0005260810952339376  0.000526081095237318  0.6669798101709592  1.0000
  C   C18       1.0  8.540499932269077e-05  0.1669901150756085  0.8334079933269893  1.0000
  C   C19       1.0  0.16664746746778528  0.16664746746778264  0.6666900897148335  1.0000
  C   C20       1.0  0.1669901150756132  8.540499932453485e-05  0.8334079933269877  1.0000
  C   C21       1.0  0.2502759196627792  0.08329805099181314  0.9166377140148421  1.0000
  C   C22       1.0  0.08363258352723879  0.08363258352723794  0.7500968808515609  1.0000
  C   C23       1.0  0.0832980509918157  0.2502759196627751  0.9166377140148381  1.0000
  C   C24       1.0  0.2497737979074661  0.2497737979074652  0.7498743419412179  1.0000
  C   C25       1.0  0.9998383404039378  0.33368944944066853  0.9998383404039412  1.0000
  C   C26       1.0  0.9998576609806549  0.5000703079444317  0.1665537072459398  1.0000
  C   C27       1.0  0.1665537072459424  0.5000703079444273  0.9998576609806539  1.0000
  C   C28       1.0  0.16661247350743172  0.33338096013592805  0.1666124735074294  1.0000
  C   C29       1.0  0.2499539707961157  0.41666364824616436  0.24995397079612236  1.0000
  C   C30       1.0  0.08322469047994266  0.41680580193529154  0.08322469047994228  1.0000
  C   C31       1.0  0.08331802113485184  0.5833991867729015  0.24987931294166388  1.0000
  C   C32       1.0  0.24987931294166618  0.5833991867729004  0.08331802113485473  1.0000
  C   C33       1.0  0.999843123177851  0.3333579627982529  0.33335796279825014  1.0000
  C   C34       1.0  0.9997572176603486  0.5000257331918869  0.500025733191887  1.0000
  C   C35       1.0  0.16653056261808033  0.4999578616370199  0.33329191287164006  1.0000
  C   C36       1.0  0.16653056261807922  0.3332919128716371  0.49995786163701844  1.0000
  C   C37       1.0  0.24979798096486225  0.41657203029462997  0.5832594985272284  1.0000
  C   C38       1.0  0.08317789734034277  0.41667112582204907  0.4166711258220479  1.0000
  C   C39       1.0  0.08303657599423603  0.583380983842232  0.5833809838422327  1.0000
  C   C40       1.0  0.24979798096486291  0.5832594985272336  0.4165720302946305  1.0000
  C   C41       1.0  1.3008725780228485e-06  0.33327946464066255  0.6665487778259209  1.0000
  C   C42       1.0  0.9989943386501157  0.5009797279405135  0.8330756640797597  1.0000
  C   C43       1.0  0.16646938033355793  0.5001179079022615  0.6666135809555276  1.0000
  C   C44       1.0  0.1664530434938671  0.3335688523160194  0.8332914500015888  1.0000
  C   C45       1.0  0.24991869345540416  0.4167644022792408  0.916539341148023  1.0000
  C   C46       1.0  0.0828609842569516  0.41710394634517783  0.7498585646876358  1.0000
  C   C47       1.0  0.08318890244982492  0.5835950428156621  0.9166001764353012  1.0000
  C   C48       1.0  0.2500328078791809  0.583354782321796  0.7498633386366274  1.0000
  C   C49       1.0  0.0005260810952375807  0.6669798101709624  0.0005260810952339169  1.0000
  C   C50       1.0  8.54049993222174e-05  0.8334079933269893  0.1669901150756089  1.0000
  C   C51       1.0  0.1669901150756086  0.8334079933269903  8.540499932618242e-05  1.0000
  C   C52       1.0  0.1666474674677857  0.6666900897148337  0.1666474674677823  1.0000
  C   C53       1.0  0.24977379790747167  0.7498743419412226  0.24977379790746337  1.0000
  C   C54       1.0  0.08363258352723685  0.7500968808515633  0.08363258352723689  1.0000
  C   C55       1.0  0.08329805099181298  0.9166377140148484  0.25027591966277607  1.0000
  C   C56       1.0  0.2502759196627816  0.916637714014846  0.08329805099181373  1.0000
  C   C57       1.0  1.3008725750416245e-06  0.6665487778259238  0.33327946464066405  1.0000
  C   C58       1.0  0.9989943386501154  0.8330756640797639  0.5009797279405139  1.0000
  C   C59       1.0  0.1664530434938708  0.8332914500015948  0.3335688523160196  1.0000
  C   C60       1.0  0.16646938033355974  0.6666135809555286  0.5001179079022622  1.0000
  C   C61       1.0  0.25003280787918764  0.7498633386366277  0.5833547823217957  1.0000
  C   C62       1.0  0.08286098425695347  0.7498585646876356  0.41710394634517634  1.0000
  C   C63       1.0  0.0831889024498299  0.9166001764353064  0.5835950428156642  1.0000
  C   C64       1.0  0.2499186934554055  0.916539341148025  0.41676440227924294  1.0000
  C   C65       1.0  0.9994972728206  0.6667792847136063  0.666779284713608  1.0000
  C   C66       1.0  0.0007408781255486602  0.8338212147319278  0.833821214731922  1.0000
  C   C67       1.0  0.16673785136189098  0.8332491245658051  0.6667115836291476  1.0000
  C   C68       1.0  0.16673785136188707  0.6667115836291473  0.8332491245657986  1.0000
  C   C69       1.0  0.2502212714160285  0.7499870638350478  0.9165766287473812  1.0000
  C   C70       1.0  0.0833860720895997  0.7501056188168679  0.7501056188168655  1.0000
  C   C71       1.0  0.08381901849473664  0.9169305034015888  0.9169305034015821  1.0000
  C   C72       1.0  0.2502212714160356  0.9165766287473776  0.7499870638350473  1.0000
  C   C73       1.0  0.3336894494406724  0.9998383404039373  0.9998383404039378  1.0000
  C   C74       1.0  0.33338096013593127  0.16661247350742886  0.16661247350742722  1.0000
  C   C75       1.0  0.5000703079444283  0.16655370724594315  0.9998576609806561  1.0000
  C   C76       1.0  0.5000703079444315  0.9998576609806603  0.16655370724594137  1.0000
  C   C77       1.0  0.5833991867728998  0.08331802113485585  0.2498793129416622  1.0000
  C   C78       1.0  0.41680580193529004  0.08322469047994126  0.08322469047994144  1.0000
  C   C79       1.0  0.4166636482461651  0.24995397079611598  0.24995397079611836  1.0000
  C   C80       1.0  0.5833991867728958  0.24987931294166088  0.08331802113485284  1.0000
  C   C81       1.0  0.3333579627982508  0.9998431231778517  0.33335796279825186  1.0000
  C   C82       1.0  0.3332919128716357  0.16653056261808286  0.4999578616370204  1.0000
  C   C83       1.0  0.4999578616370189  0.16653056261808236  0.33329191287163745  1.0000
  C   C84       1.0  0.5000257331918865  0.99975721766035  0.5000257331918851  1.0000
  C   C85       1.0  0.5833809838422294  0.0830365759942351  0.5833809838422298  1.0000
  C   C86       1.0  0.4166711258220463  0.0831778973403422  0.4166711258220484  1.0000
  C   C87       1.0  0.416572030294628  0.24979798096486097  0.5832594985272294  1.0000
  C   C88       1.0  0.5832594985272287  0.24979798096485983  0.41657203029463036  1.0000
  C   C89       1.0  0.33327946464066616  1.3008725798734526e-06  0.6665487778259224  1.0000
  C   C90       1.0  0.33356885231602085  0.1664530434938656  0.8332914500015877  1.0000
  C   C91       1.0  0.5001179079022566  0.16646938033355715  0.6666135809555267  1.0000
  C   C92       1.0  0.5009797279405164  0.9989943386501138  0.8330756640797572  1.0000
  C   C93       1.0  0.583595042815663  0.08318890244983103  0.9166001764353044  1.0000
  C   C94       1.0  0.4171039463451784  0.08286098425695457  0.7498585646876365  1.0000
  C   C95       1.0  0.41676440227924016  0.24991869345540374  0.9165393411480216  1.0000
  C   C96       1.0  0.5833547823217953  0.2500328078791844  0.7498633386366276  1.0000
  C   C97       1.0  0.3333579627982527  0.333357962798248  0.9998431231778506  1.0000
  C   C98       1.0  0.3332919128716375  0.49995786163702227  0.16653056261808152  1.0000
  C   C99       1.0  0.5000257331918825  0.5000257331918808  0.9997572176603502  1.0000
  C   C100      1.0  0.49995786163701594  0.3332919128716352  0.16653056261808313  1.0000
  C   C101      1.0  0.5832594985272284  0.41657203029462797  0.24979798096486025  1.0000
  C   C102      1.0  0.41667112582204746  0.41667112582204724  0.08317789734034145  1.0000
  C   C103      1.0  0.41657203029463147  0.5832594985272297  0.24979798096486233  1.0000
  C   C104      1.0  0.5833809838422298  0.5833809838422288  0.08303657599423421  1.0000
  C   C105      1.0  0.33330826516982065  0.3333082651698167  0.33330826516981865  1.0000
  C   C106      1.0  0.3333391338540679  0.5000525629292625  0.5000525629292659  1.0000
  C   C107      1.0  0.5000525629292628  0.5000525629292638  0.3333391338540655  1.0000
  C   C108      1.0  0.5000525629292599  0.33333913385406433  0.5000525629292621  1.0000
  C   C109      1.0  0.5832112338336367  0.4168712359447673  0.5832112338336385  1.0000
  C   C110      1.0  0.41663291434038874  0.4166329143403834  0.4166329143403846  1.0000
  C   C111      1.0  0.4168712359447723  0.58321123383364  0.5832112338336397  1.0000
  C   C112      1.0  0.583211233833638  0.5832112338336395  0.4168712359447708  1.0000
  C   C113      1.0  0.33281105099898295  0.33281105099897973  0.6666559429743585  1.0000
  C   C114      1.0  0.3333028345471386  0.49993604836108346  0.833130077418814  1.0000
  C   C115      1.0  0.5000004295460121  0.500000429546008  0.666954544548483  1.0000
  C   C116      1.0  0.4999360483610873  0.3333028345471411  0.8331300774188148  1.0000
  C   C117      1.0  0.5835986839279814  0.4163946121267346  0.9168245353604557  1.0000
  C   C118      1.0  0.4157796033730989  0.4157796033730997  0.7494263989739948  1.0000
  C   C119      1.0  0.4163946121267356  0.5835986839279815  0.9168245353604574  1.0000
  C   C120      1.0  0.5776305621847213  0.5776305621847185  0.7531272886396627  1.0000
  C   C121      1.0  0.3332794646406639  0.6665487778259233  1.3008725776162066e-06  1.0000
  C   C122      1.0  0.33356885231602096  0.8332914500015934  0.16645304349386678  1.0000
  C   C123      1.0  0.5009797279405143  0.8330756640797649  0.998994338650114  1.0000
  C   C124      1.0  0.5001179079022617  0.6666135809555259  0.1664693803335563  1.0000
  C   C125      1.0  0.5833547823217959  0.7498633386366275  0.2500328078791832  1.0000
  C   C126      1.0  0.4171039463451799  0.7498585646876377  0.08286098425695491  1.0000
  C   C127      1.0  0.4167644022792435  0.9165393411480274  0.24991869345540357  1.0000
  C   C128      1.0  0.583595042815665  0.9166001764353072  0.08318890244982556  1.0000
  C   C129      1.0  0.3328110509989806  0.6666559429743603  0.3328110509989795  1.0000
  C   C130      1.0  0.33330283454714377  0.8331300774188156  0.4999360483610863  1.0000
  C   C131      1.0  0.49993604836108446  0.8331300774188106  0.33330283454713855  1.0000
  C   C132      1.0  0.5000004295460118  0.6669545445484808  0.5000004295460091  1.0000
  C   C133      1.0  0.5776305621847238  0.7531272886396633  0.5776305621847182  1.0000
  C   C134      1.0  0.41577960337309616  0.7494263989739965  0.4157796033730995  1.0000
  C   C135      1.0  0.4163946121267391  0.9168245353604584  0.5835986839279848  1.0000
  C   C136      1.0  0.5835986839279844  0.9168245353604564  0.4163946121267384  1.0000
  C   C137      1.0  0.33367151188447974  0.6664778747726258  0.6664778747726258  1.0000
  C   C138      1.0  0.33386752407661285  0.8329383458465476  0.8329383458465446  1.0000
  C   C139      1.0  0.5012235889158374  0.8315429098084225  0.6657604889858137  1.0000
  C   C140      1.0  0.5012235889158317  0.6657604889858117  0.8315429098084195  1.0000
  C   C141      1.0  0.584946958592902  0.7492640159708212  0.9149684641664251  1.0000
  C   C142      1.0  0.41740260912519905  0.7495205504400475  0.7495205504400467  1.0000
  C   C143      1.0  0.41719992309770526  0.9162941126484623  0.9162941126484608  1.0000
  C   C144      1.0  0.5849469585929044  0.9149684641664222  0.7492640159708207  1.0000
  C   C145      1.0  0.6669798101709611  0.0005260810952392357  0.0005260810952374161  1.0000
  C   C146      1.0  0.6666900897148326  0.16664746746778386  0.16664746746778442  1.0000
  C   C147      1.0  0.833407993326995  0.16699011507560912  8.540499932579582e-05  1.0000
  C   C148      1.0  0.8334079933269857  8.540499932376207e-05  0.1669901150756086  1.0000
  C   C149      1.0  0.916637714014836  0.08329805099181457  0.2502759196627797  1.0000
  C   C150      1.0  0.7500968808515633  0.08363258352724152  0.08363258352723753  1.0000
  C   C151      1.0  0.749874341941214  0.2497737979074635  0.2497737979074619  1.0000
  C   C152      1.0  0.9166377140148522  0.2502759196627798  0.0832980509918148  1.0000
  C   C153      1.0  0.6665487778259197  1.3008725764536505e-06  0.33327946464066216  1.0000
  C   C154      1.0  0.666613580955527  0.16646938033355538  0.5001179079022601  1.0000
  C   C155      1.0  0.8332914500015904  0.16645304349386678  0.3335688523160206  1.0000
  C   C156      1.0  0.8330756640797594  0.9989943386501167  0.5009797279405113  1.0000
  C   C157      1.0  0.9166001764353054  0.08318890244982906  0.5835950428156597  1.0000
  C   C158      1.0  0.7498585646876385  0.08286098425695401  0.41710394634517756  1.0000
  C   C159      1.0  0.7498633386366311  0.25003280787918314  0.5833547823217954  1.0000
  C   C160      1.0  0.9165393411480234  0.2499186934554055  0.41676440227924133  1.0000
  C   C161      1.0  0.6667792847136103  0.9994972728206033  0.666779284713606  1.0000
  C   C162      1.0  0.6667115836291463  0.16673785136189148  0.8332491245657977  1.0000
  C   C163      1.0  0.8332491245658052  0.16673785136189237  0.6667115836291431  1.0000
  C   C164      1.0  0.8338212147319206  0.0007408781255485359  0.8338212147319275  1.0000
  C   C165      1.0  0.9169305034015812  0.0838190184947361  0.9169305034015836  1.0000
  C   C166      1.0  0.7501056188168688  0.08338607208960072  0.7501056188168629  1.0000
  C   C167      1.0  0.7499870638350534  0.25022127141603406  0.9165766287473821  1.0000
  C   C168      1.0  0.9165766287473814  0.25022127141603373  0.74998706383505  1.0000
  C   C169      1.0  0.6665487778259246  0.3332794646406626  1.3008725753910932e-06  1.0000
  C   C170      1.0  0.6666135809555263  0.5001179079022596  0.1664693803335564  1.0000
  C   C171      1.0  0.8330756640797629  0.5009797279405116  0.9989943386501183  1.0000
  C   C172      1.0  0.8332914500015901  0.3335688523160208  0.16645304349386486  1.0000
  C   C173      1.0  0.9165393411480269  0.4167644022792421  0.24991869345540407  1.0000
  C   C174      1.0  0.7498585646876383  0.4171039463451769  0.0828609842569513  1.0000
  C   C175      1.0  0.7498633386366288  0.5833547823217979  0.2500328078791823  1.0000
  C   C176      1.0  0.9166001764353006  0.5835950428156607  0.0831889024498276  1.0000
  C   C177      1.0  0.6666559429743572  0.33281105099897895  0.3328110509989812  1.0000
  C   C178      1.0  0.6669545445484818  0.5000004295460078  0.5000004295460057  1.0000
  C   C179      1.0  0.8331300774188162  0.49993604836108146  0.3333028345471415  1.0000
  C   C180      1.0  0.8331300774188238  0.33330283454714055  0.4999360483610856  1.0000
  C   C181      1.0  0.9168245353604609  0.4163946121267409  0.583598683927987  1.0000
  C   C182      1.0  0.7494263989739978  0.4157796033731028  0.415779603373102  1.0000
  C   C183      1.0  0.75312728863966  0.5776305621847242  0.5776305621847231  1.0000
  C   C184      1.0  0.9168245353604554  0.5835986839279811  0.41639461212673795  1.0000
  C   C185      1.0  0.6664778747726221  0.33367151188447386  0.6664778747726248  1.0000
  C   C186      1.0  0.6657604889858151  0.5012235889158282  0.831542909808419  1.0000
  C   C187      1.0  0.8315429098084123  0.5012235889158296  0.6657604889858124  1.0000
  C   C188      1.0  0.8329383458465456  0.3338675240766043  0.8329383458465452  1.0000
  C   C189      1.0  0.9162941126484665  0.41719992309770587  0.9162941126484628  1.0000
  C   C190      1.0  0.7495205504400428  0.4174026091251906  0.7495205504400436  1.0000
  C   C191      1.0  0.749264015970824  0.5849469585928989  0.9149684641664212  1.0000
  C   C192      1.0  0.914968464166422  0.5849469585929016  0.7492640159708225  1.0000
  C   C193      1.0  0.6667792847136086  0.6667792847136066  0.9994972728206034  1.0000
  C   C194      1.0  0.6667115836291491  0.8332491245657999  0.16673785136188923  1.0000
  C   C195      1.0  0.8338212147319256  0.8338212147319273  0.0007408781255471766  1.0000
  C   C196      1.0  0.8332491245658021  0.6667115836291454  0.16673785136189084  1.0000
  C   C197      1.0  0.9165766287473764  0.7499870638350492  0.25022127141603046  1.0000
  C   C198      1.0  0.7501056188168619  0.7501056188168619  0.08338607208959523  1.0000
  C   C199      1.0  0.749987063835049  0.9165766287473802  0.25022127141603057  1.0000
  C   C200      1.0  0.9169305034015759  0.9169305034015818  0.08381901849473532  1.0000
  C   C201      1.0  0.6664778747726299  0.6664778747726307  0.3336715118844735  1.0000
  C   C202      1.0  0.6657604889858084  0.8315429098084187  0.5012235889158259  1.0000
  C   C203      1.0  0.8329383458465437  0.8329383458465482  0.33386752407660875  1.0000
  C   C204      1.0  0.8315429098084129  0.6657604889858129  0.5012235889158289  1.0000
  C   C205      1.0  0.9149684641664195  0.7492640159708245  0.5849469585929024  1.0000
  C   C206      1.0  0.7495205504400483  0.7495205504400488  0.4174026091251941  1.0000
  C   C207      1.0  0.7492640159708225  0.9149684641664243  0.5849469585929  1.0000
  C   C208      1.0  0.9162941126484645  0.9162941126484668  0.4171999230977038  1.0000
  C   C209      1.0  0.6707772628199847  0.8332102758193425  0.8332102758193409  1.0000
  C   C210      1.0  0.8332102758193326  0.8332102758193378  0.6707772628199865  1.0000
  C   C211      1.0  0.8332102758193409  0.6707772628199893  0.8332102758193385  1.0000
  C   C212      1.0  0.9179710088970467  0.7504605491920585  0.9179710088970415  1.0000
  N   N1        1.0  0.758239886425691  0.7582398864256924  0.7582398864256913  1.0000
  C   C213      1.0  0.7504605491920595  0.9179710088970437  0.9179710088970425  1.0000
  C   C214      1.0  0.917971008897035  0.9179710088970482  0.7504605491920573  1.0000
